testcases/gridlabd/test_regulator_1/test_regulator_1.glm
// $id$
//	Copyright (C) 2008 Battelle Memorial Institute

// 4 node system with a balanced load and a regulator
// being controlled manually, which each phase handled
// individually.  Check to make sure voltages are being
// regulated correctly with both a Type A & B regulator.


clock {
	timezone EST+5EDT;
	starttime '2000-01-01 3:00:00';
	stoptime '2000-01-02 12:00:00';
}


object overhead_line_conductor:100 {
	geometric_mean_radius 0.0244;
	resistance 0.306;
}

object overhead_line_conductor:101 {
	geometric_mean_radius 0.00814;
	resistance 0.592;
}

object line_spacing:200 {
	distance_AB 2.5;
	distance_BC 4.5;
	distance_AC 7.0;
	distance_AN 5.656854;
	distance_BN 4.272002;
	distance_CN 5.0;
}

object line_configuration:300 {
	conductor_A overhead_line_conductor:100;
	conductor_B overhead_line_conductor:100;
	conductor_C overhead_line_conductor:100;
	conductor_N overhead_line_conductor:101;
	spacing line_spacing:200;
}

object regulator_configuration {
	connect_type WYE_WYE;
	band_center 8300.0;
	band_width 133;
	name manual_regulator;
	raise_taps 16;
	lower_taps 16;
	regulation 0.1;
    	tap_pos_A 0; 
     	tap_pos_B 0; 
     	tap_pos_C 0; 
	Control OUTPUT_VOLTAGE;
}

object node {
	phases ABCN;
	name FeederNode;
	bustype SWING;
	voltage_A +7199.558+0.000j;
	voltage_B -3599.779-6235.000j;
	voltage_C -3599.779+6235.000j;
	nominal_voltage 7200;
}
	
object regulator {
	name Regulator;
	phases ABCN;
	from FeederNode;
	to TopNode;
	configuration manual_regulator;
}

object node {
	phases "ABCN";
	name TopNode;
	voltage_A +7199.558+0.000j;
	voltage_B -3599.779-6235.000j;
	voltage_C -3599.779+6235.000j;
	nominal_voltage 7200;
}

object overhead_line {
	phases "ABCN";
	from TopNode;
	to MiddleNode;
	length 2000;
	configuration line_configuration:300;
}

object node {
	phases "ABCN";
	nominal_voltage 7200;
	voltage_A +7199.558+0.000j;
	voltage_B -3599.779-6235.000j;
	voltage_C -3599.779+6235.000j;
	name MiddleNode;
}

object overhead_line {
	phases "ABCN";
	from MiddleNode;
	to BottomLoad;
	length 2500;
	configuration line_configuration:300;
}

object load {
	phases "ABCN";
	name BottomLoad;
	constant_power_A +5000.000+120.0j;
	constant_power_B +5000.000+120.0j;
	constant_power_C +5000.000+120.0j;
	nominal_voltage 7200;
}
